/*--------------------------------*- C++ -*----------------------------------*\
  =========                 |
  \\      /  F ield         | OpenFOAM: The Open Source CFD Toolbox
   \\    /   O peration     | Website:  https://openfoam.org
    \\  /    A nd           | Version:  7
     \\/     M anipulation  |
\*---------------------------------------------------------------------------*/
FoamFile
{
    version     2.0;
    format      ascii;
    class       polyBoundaryMesh;
    location    "constant/polyMesh";
    object      boundary;
}
// * * * * * * * * * * * * * * * * * * * * * * * * * * * * * * * * * * * * * //

9
(
    inlet
    {
        type            patch;
        nFaces          0;
        startFace       627;
    }
    outlet
    {
        type            patch;
        nFaces          0;
        startFace       627;
    }
    airfoil
    {
        type            wall;
        inGroups        List<word> 1(wall);
        nFaces          0;
        startFace       627;
    }
    top
    {
        type            symmetryPlane;
        inGroups        List<word> 1(symmetryPlane);
        nFaces          12;
        startFace       627;
    }
    bottom
    {
        type            symmetryPlane;
        inGroups        List<word> 1(symmetryPlane);
        nFaces          0;
        startFace       639;
    }
    defaultFaces
    {
        type            empty;
        inGroups        List<word> 1(empty);
        nFaces          670;
        startFace       639;
    }
    procBoundary32to26
    {
        type            processor;
        inGroups        List<word> 1(processor);
        nFaces          19;
        startFace       1309;
        matchTolerance  0.0001;
        transform       unknown;
        myProcNo        32;
        neighbProcNo    26;
    }
    procBoundary32to31
    {
        type            processor;
        inGroups        List<word> 1(processor);
        nFaces          29;
        startFace       1328;
        matchTolerance  0.0001;
        transform       unknown;
        myProcNo        32;
        neighbProcNo    31;
    }
    procBoundary32to33
    {
        type            processor;
        inGroups        List<word> 1(processor);
        nFaces          26;
        startFace       1357;
        matchTolerance  0.0001;
        transform       unknown;
        myProcNo        32;
        neighbProcNo    33;
    }
)

// ************************************************************************* //
