/*--------------------------------*- C++ -*----------------------------------*\
  =========                 |
  \\      /  F ield         | OpenFOAM: The Open Source CFD Toolbox
   \\    /   O peration     | Website:  https://openfoam.org
    \\  /    A nd           | Version:  7
     \\/     M anipulation  |
\*---------------------------------------------------------------------------*/
FoamFile
{
    version     2.0;
    format      ascii;
    class       polyBoundaryMesh;
    location    "constant/polyMesh";
    object      boundary;
}
// * * * * * * * * * * * * * * * * * * * * * * * * * * * * * * * * * * * * * //

12
(
    inlet
    {
        type            patch;
        nFaces          0;
        startFace       615;
    }
    outlet
    {
        type            patch;
        nFaces          0;
        startFace       615;
    }
    airfoil
    {
        type            wall;
        inGroups        List<word> 1(wall);
        nFaces          27;
        startFace       615;
    }
    top
    {
        type            symmetryPlane;
        inGroups        List<word> 1(symmetryPlane);
        nFaces          0;
        startFace       642;
    }
    bottom
    {
        type            symmetryPlane;
        inGroups        List<word> 1(symmetryPlane);
        nFaces          0;
        startFace       642;
    }
    defaultFaces
    {
        type            empty;
        inGroups        List<word> 1(empty);
        nFaces          666;
        startFace       642;
    }
    procBoundary19to12
    {
        type            processor;
        inGroups        List<word> 1(processor);
        nFaces          2;
        startFace       1308;
        matchTolerance  0.0001;
        transform       unknown;
        myProcNo        19;
        neighbProcNo    12;
    }
    procBoundary19to13
    {
        type            processor;
        inGroups        List<word> 1(processor);
        nFaces          1;
        startFace       1310;
        matchTolerance  0.0001;
        transform       unknown;
        myProcNo        19;
        neighbProcNo    13;
    }
    procBoundary19to18
    {
        type            processor;
        inGroups        List<word> 1(processor);
        nFaces          21;
        startFace       1311;
        matchTolerance  0.0001;
        transform       unknown;
        myProcNo        19;
        neighbProcNo    18;
    }
    procBoundary19to20
    {
        type            processor;
        inGroups        List<word> 1(processor);
        nFaces          9;
        startFace       1332;
        matchTolerance  0.0001;
        transform       unknown;
        myProcNo        19;
        neighbProcNo    20;
    }
    procBoundary19to24
    {
        type            processor;
        inGroups        List<word> 1(processor);
        nFaces          13;
        startFace       1341;
        matchTolerance  0.0001;
        transform       unknown;
        myProcNo        19;
        neighbProcNo    24;
    }
    procBoundary19to25
    {
        type            processor;
        inGroups        List<word> 1(processor);
        nFaces          29;
        startFace       1354;
        matchTolerance  0.0001;
        transform       unknown;
        myProcNo        19;
        neighbProcNo    25;
    }
)

// ************************************************************************* //
