/*--------------------------------*- C++ -*----------------------------------*\
  =========                 |
  \\      /  F ield         | OpenFOAM: The Open Source CFD Toolbox
   \\    /   O peration     | Website:  https://openfoam.org
    \\  /    A nd           | Version:  7
     \\/     M anipulation  |
\*---------------------------------------------------------------------------*/
FoamFile
{
    version     2.0;
    format      ascii;
    class       polyBoundaryMesh;
    location    "constant/polyMesh";
    object      boundary;
}
// * * * * * * * * * * * * * * * * * * * * * * * * * * * * * * * * * * * * * //

12
(
    inlet
    {
        type            patch;
        nFaces          0;
        startFace       616;
    }
    outlet
    {
        type            patch;
        nFaces          0;
        startFace       616;
    }
    airfoil
    {
        type            wall;
        inGroups        List<word> 1(wall);
        nFaces          0;
        startFace       616;
    }
    top
    {
        type            symmetryPlane;
        inGroups        List<word> 1(symmetryPlane);
        nFaces          0;
        startFace       616;
    }
    bottom
    {
        type            symmetryPlane;
        inGroups        List<word> 1(symmetryPlane);
        nFaces          0;
        startFace       616;
    }
    defaultFaces
    {
        type            empty;
        inGroups        List<word> 1(empty);
        nFaces          666;
        startFace       616;
    }
    procBoundary7to0
    {
        type            processor;
        inGroups        List<word> 1(processor);
        nFaces          11;
        startFace       1282;
        matchTolerance  0.0001;
        transform       unknown;
        myProcNo        7;
        neighbProcNo    0;
    }
    procBoundary7to1
    {
        type            processor;
        inGroups        List<word> 1(processor);
        nFaces          23;
        startFace       1293;
        matchTolerance  0.0001;
        transform       unknown;
        myProcNo        7;
        neighbProcNo    1;
    }
    procBoundary7to6
    {
        type            processor;
        inGroups        List<word> 1(processor);
        nFaces          13;
        startFace       1316;
        matchTolerance  0.0001;
        transform       unknown;
        myProcNo        7;
        neighbProcNo    6;
    }
    procBoundary7to8
    {
        type            processor;
        inGroups        List<word> 1(processor);
        nFaces          15;
        startFace       1329;
        matchTolerance  0.0001;
        transform       unknown;
        myProcNo        7;
        neighbProcNo    8;
    }
    procBoundary7to13
    {
        type            processor;
        inGroups        List<word> 1(processor);
        nFaces          29;
        startFace       1344;
        matchTolerance  0.0001;
        transform       unknown;
        myProcNo        7;
        neighbProcNo    13;
    }
    procBoundary7to14
    {
        type            processor;
        inGroups        List<word> 1(processor);
        nFaces          9;
        startFace       1373;
        matchTolerance  0.0001;
        transform       unknown;
        myProcNo        7;
        neighbProcNo    14;
    }
)

// ************************************************************************* //
