/*--------------------------------*- C++ -*----------------------------------*\
  =========                 |
  \\      /  F ield         | OpenFOAM: The Open Source CFD Toolbox
   \\    /   O peration     | Website:  https://openfoam.org
    \\  /    A nd           | Version:  7
     \\/     M anipulation  |
\*---------------------------------------------------------------------------*/
FoamFile
{
    version     2.0;
    format      ascii;
    class       polyBoundaryMesh;
    location    "constant/polyMesh";
    object      boundary;
}
// * * * * * * * * * * * * * * * * * * * * * * * * * * * * * * * * * * * * * //

10
(
    inlet
    {
        type            patch;
        nFaces          0;
        startFace       623;
    }
    outlet
    {
        type            patch;
        nFaces          0;
        startFace       623;
    }
    airfoil
    {
        type            wall;
        inGroups        List<word> 1(wall);
        nFaces          0;
        startFace       623;
    }
    top
    {
        type            symmetryPlane;
        inGroups        List<word> 1(symmetryPlane);
        nFaces          11;
        startFace       623;
    }
    bottom
    {
        type            symmetryPlane;
        inGroups        List<word> 1(symmetryPlane);
        nFaces          0;
        startFace       634;
    }
    defaultFaces
    {
        type            empty;
        inGroups        List<word> 1(empty);
        nFaces          670;
        startFace       634;
    }
    procBoundary31to25
    {
        type            processor;
        inGroups        List<word> 1(processor);
        nFaces          17;
        startFace       1304;
        matchTolerance  0.0001;
        transform       unknown;
        myProcNo        31;
        neighbProcNo    25;
    }
    procBoundary31to26
    {
        type            processor;
        inGroups        List<word> 1(processor);
        nFaces          2;
        startFace       1321;
        matchTolerance  0.0001;
        transform       unknown;
        myProcNo        31;
        neighbProcNo    26;
    }
    procBoundary31to30
    {
        type            processor;
        inGroups        List<word> 1(processor);
        nFaces          33;
        startFace       1323;
        matchTolerance  0.0001;
        transform       unknown;
        myProcNo        31;
        neighbProcNo    30;
    }
    procBoundary31to32
    {
        type            processor;
        inGroups        List<word> 1(processor);
        nFaces          31;
        startFace       1356;
        matchTolerance  0.0001;
        transform       unknown;
        myProcNo        31;
        neighbProcNo    32;
    }
)

// ************************************************************************* //
