/*--------------------------------*- C++ -*----------------------------------*\
  =========                 |
  \\      /  F ield         | OpenFOAM: The Open Source CFD Toolbox
   \\    /   O peration     | Website:  https://openfoam.org
    \\  /    A nd           | Version:  7
     \\/     M anipulation  |
\*---------------------------------------------------------------------------*/
FoamFile
{
    version     2.0;
    format      ascii;
    class       polyBoundaryMesh;
    location    "constant/polyMesh";
    object      boundary;
}
// * * * * * * * * * * * * * * * * * * * * * * * * * * * * * * * * * * * * * //

13
(
    inlet
    {
        type            patch;
        nFaces          0;
        startFace       611;
    }
    outlet
    {
        type            patch;
        nFaces          0;
        startFace       611;
    }
    airfoil
    {
        type            wall;
        inGroups        List<word> 1(wall);
        nFaces          34;
        startFace       611;
    }
    top
    {
        type            symmetryPlane;
        inGroups        List<word> 1(symmetryPlane);
        nFaces          0;
        startFace       645;
    }
    bottom
    {
        type            symmetryPlane;
        inGroups        List<word> 1(symmetryPlane);
        nFaces          0;
        startFace       645;
    }
    defaultFaces
    {
        type            empty;
        inGroups        List<word> 1(empty);
        nFaces          666;
        startFace       645;
    }
    procBoundary20to13
    {
        type            processor;
        inGroups        List<word> 1(processor);
        nFaces          4;
        startFace       1311;
        matchTolerance  0.0001;
        transform       unknown;
        myProcNo        20;
        neighbProcNo    13;
    }
    procBoundary20to14
    {
        type            processor;
        inGroups        List<word> 1(processor);
        nFaces          7;
        startFace       1315;
        matchTolerance  0.0001;
        transform       unknown;
        myProcNo        20;
        neighbProcNo    14;
    }
    procBoundary20to19
    {
        type            processor;
        inGroups        List<word> 1(processor);
        nFaces          14;
        startFace       1322;
        matchTolerance  0.0001;
        transform       unknown;
        myProcNo        20;
        neighbProcNo    19;
    }
    procBoundary20to21
    {
        type            processor;
        inGroups        List<word> 1(processor);
        nFaces          10;
        startFace       1336;
        matchTolerance  0.0001;
        transform       unknown;
        myProcNo        20;
        neighbProcNo    21;
    }
    procBoundary20to25
    {
        type            processor;
        inGroups        List<word> 1(processor);
        nFaces          2;
        startFace       1346;
        matchTolerance  0.0001;
        transform       unknown;
        myProcNo        20;
        neighbProcNo    25;
    }
    procBoundary20to26
    {
        type            processor;
        inGroups        List<word> 1(processor);
        nFaces          27;
        startFace       1348;
        matchTolerance  0.0001;
        transform       unknown;
        myProcNo        20;
        neighbProcNo    26;
    }
    procBoundary20to27
    {
        type            processor;
        inGroups        List<word> 1(processor);
        nFaces          12;
        startFace       1375;
        matchTolerance  0.0001;
        transform       unknown;
        myProcNo        20;
        neighbProcNo    27;
    }
)

// ************************************************************************* //
