/*--------------------------------*- C++ -*----------------------------------*\
  =========                 |
  \\      /  F ield         | OpenFOAM: The Open Source CFD Toolbox
   \\    /   O peration     | Website:  https://openfoam.org
    \\  /    A nd           | Version:  7
     \\/     M anipulation  |
\*---------------------------------------------------------------------------*/
FoamFile
{
    version     2.0;
    format      ascii;
    class       polyBoundaryMesh;
    location    "constant/polyMesh";
    object      boundary;
}
// * * * * * * * * * * * * * * * * * * * * * * * * * * * * * * * * * * * * * //

12
(
    inlet
    {
        type            patch;
        nFaces          0;
        startFace       615;
    }
    outlet
    {
        type            patch;
        nFaces          0;
        startFace       615;
    }
    airfoil
    {
        type            wall;
        inGroups        List<word> 1(wall);
        nFaces          0;
        startFace       615;
    }
    top
    {
        type            symmetryPlane;
        inGroups        List<word> 1(symmetryPlane);
        nFaces          0;
        startFace       615;
    }
    bottom
    {
        type            symmetryPlane;
        inGroups        List<word> 1(symmetryPlane);
        nFaces          0;
        startFace       615;
    }
    defaultFaces
    {
        type            empty;
        inGroups        List<word> 1(empty);
        nFaces          666;
        startFace       615;
    }
    procBoundary9to3
    {
        type            processor;
        inGroups        List<word> 1(processor);
        nFaces          23;
        startFace       1281;
        matchTolerance  0.0001;
        transform       unknown;
        myProcNo        9;
        neighbProcNo    3;
    }
    procBoundary9to4
    {
        type            processor;
        inGroups        List<word> 1(processor);
        nFaces          1;
        startFace       1304;
        matchTolerance  0.0001;
        transform       unknown;
        myProcNo        9;
        neighbProcNo    4;
    }
    procBoundary9to8
    {
        type            processor;
        inGroups        List<word> 1(processor);
        nFaces          9;
        startFace       1305;
        matchTolerance  0.0001;
        transform       unknown;
        myProcNo        9;
        neighbProcNo    8;
    }
    procBoundary9to10
    {
        type            processor;
        inGroups        List<word> 1(processor);
        nFaces          24;
        startFace       1314;
        matchTolerance  0.0001;
        transform       unknown;
        myProcNo        9;
        neighbProcNo    10;
    }
    procBoundary9to14
    {
        type            processor;
        inGroups        List<word> 1(processor);
        nFaces          15;
        startFace       1338;
        matchTolerance  0.0001;
        transform       unknown;
        myProcNo        9;
        neighbProcNo    14;
    }
    procBoundary9to15
    {
        type            processor;
        inGroups        List<word> 1(processor);
        nFaces          30;
        startFace       1353;
        matchTolerance  0.0001;
        transform       unknown;
        myProcNo        9;
        neighbProcNo    15;
    }
)

// ************************************************************************* //
