/*--------------------------------*- C++ -*----------------------------------*\
  =========                 |
  \\      /  F ield         | OpenFOAM: The Open Source CFD Toolbox
   \\    /   O peration     | Website:  https://openfoam.org
    \\  /    A nd           | Version:  7
     \\/     M anipulation  |
\*---------------------------------------------------------------------------*/
FoamFile
{
    version     2.0;
    format      ascii;
    class       polyBoundaryMesh;
    location    "constant/polyMesh";
    object      boundary;
}
// * * * * * * * * * * * * * * * * * * * * * * * * * * * * * * * * * * * * * //

12
(
    inlet
    {
        type            patch;
        nFaces          0;
        startFace       601;
    }
    outlet
    {
        type            patch;
        nFaces          0;
        startFace       601;
    }
    airfoil
    {
        type            wall;
        inGroups        List<word> 1(wall);
        nFaces          36;
        startFace       601;
    }
    top
    {
        type            symmetryPlane;
        inGroups        List<word> 1(symmetryPlane);
        nFaces          0;
        startFace       637;
    }
    bottom
    {
        type            symmetryPlane;
        inGroups        List<word> 1(symmetryPlane);
        nFaces          0;
        startFace       637;
    }
    defaultFaces
    {
        type            empty;
        inGroups        List<word> 1(empty);
        nFaces          666;
        startFace       637;
    }
    procBoundary19to6
    {
        type            processor;
        inGroups        List<word> 1(processor);
        nFaces          1;
        startFace       1303;
        matchTolerance  0.0001;
        transform       unknown;
        myProcNo        19;
        neighbProcNo    6;
    }
    procBoundary19to12
    {
        type            processor;
        inGroups        List<word> 1(processor);
        nFaces          23;
        startFace       1304;
        matchTolerance  0.0001;
        transform       unknown;
        myProcNo        19;
        neighbProcNo    12;
    }
    procBoundary19to13
    {
        type            processor;
        inGroups        List<word> 1(processor);
        nFaces          16;
        startFace       1327;
        matchTolerance  0.0001;
        transform       unknown;
        myProcNo        19;
        neighbProcNo    13;
    }
    procBoundary19to18
    {
        type            processor;
        inGroups        List<word> 1(processor);
        nFaces          20;
        startFace       1343;
        matchTolerance  0.0001;
        transform       unknown;
        myProcNo        19;
        neighbProcNo    18;
    }
    procBoundary19to20
    {
        type            processor;
        inGroups        List<word> 1(processor);
        nFaces          10;
        startFace       1363;
        matchTolerance  0.0001;
        transform       unknown;
        myProcNo        19;
        neighbProcNo    20;
    }
    procBoundary19to25
    {
        type            processor;
        inGroups        List<word> 1(processor);
        nFaces          24;
        startFace       1373;
        matchTolerance  0.0001;
        transform       unknown;
        myProcNo        19;
        neighbProcNo    25;
    }
)

// ************************************************************************* //
