/*--------------------------------*- C++ -*----------------------------------*\
  =========                 |
  \\      /  F ield         | OpenFOAM: The Open Source CFD Toolbox
   \\    /   O peration     | Website:  https://openfoam.org
    \\  /    A nd           | Version:  7
     \\/     M anipulation  |
\*---------------------------------------------------------------------------*/
FoamFile
{
    version     2.0;
    format      ascii;
    class       polyBoundaryMesh;
    location    "constant/polyMesh";
    object      boundary;
}
// * * * * * * * * * * * * * * * * * * * * * * * * * * * * * * * * * * * * * //

13
(
    inlet
    {
        type            patch;
        nFaces          0;
        startFace       617;
    }
    outlet
    {
        type            patch;
        nFaces          0;
        startFace       617;
    }
    airfoil
    {
        type            wall;
        inGroups        List<word> 1(wall);
        nFaces          24;
        startFace       617;
    }
    top
    {
        type            symmetryPlane;
        inGroups        List<word> 1(symmetryPlane);
        nFaces          0;
        startFace       641;
    }
    bottom
    {
        type            symmetryPlane;
        inGroups        List<word> 1(symmetryPlane);
        nFaces          0;
        startFace       641;
    }
    defaultFaces
    {
        type            empty;
        inGroups        List<word> 1(empty);
        nFaces          666;
        startFace       641;
    }
    procBoundary15to9
    {
        type            processor;
        inGroups        List<word> 1(processor);
        nFaces          30;
        startFace       1307;
        matchTolerance  0.0001;
        transform       unknown;
        myProcNo        15;
        neighbProcNo    9;
    }
    procBoundary15to10
    {
        type            processor;
        inGroups        List<word> 1(processor);
        nFaces          2;
        startFace       1337;
        matchTolerance  0.0001;
        transform       unknown;
        myProcNo        15;
        neighbProcNo    10;
    }
    procBoundary15to14
    {
        type            processor;
        inGroups        List<word> 1(processor);
        nFaces          7;
        startFace       1339;
        matchTolerance  0.0001;
        transform       unknown;
        myProcNo        15;
        neighbProcNo    14;
    }
    procBoundary15to16
    {
        type            processor;
        inGroups        List<word> 1(processor);
        nFaces          28;
        startFace       1346;
        matchTolerance  0.0001;
        transform       unknown;
        myProcNo        15;
        neighbProcNo    16;
    }
    procBoundary15to20
    {
        type            processor;
        inGroups        List<word> 1(processor);
        nFaces          1;
        startFace       1374;
        matchTolerance  0.0001;
        transform       unknown;
        myProcNo        15;
        neighbProcNo    20;
    }
    procBoundary15to21
    {
        type            processor;
        inGroups        List<word> 1(processor);
        nFaces          4;
        startFace       1375;
        matchTolerance  0.0001;
        transform       unknown;
        myProcNo        15;
        neighbProcNo    21;
    }
    procBoundary15to22
    {
        type            processor;
        inGroups        List<word> 1(processor);
        nFaces          2;
        startFace       1379;
        matchTolerance  0.0001;
        transform       unknown;
        myProcNo        15;
        neighbProcNo    22;
    }
)

// ************************************************************************* //
