/*--------------------------------*- C++ -*----------------------------------*\
  =========                 |
  \\      /  F ield         | OpenFOAM: The Open Source CFD Toolbox
   \\    /   O peration     | Website:  https://openfoam.org
    \\  /    A nd           | Version:  7
     \\/     M anipulation  |
\*---------------------------------------------------------------------------*/
FoamFile
{
    version     2.0;
    format      ascii;
    class       polyBoundaryMesh;
    location    "constant/polyMesh";
    object      boundary;
}
// * * * * * * * * * * * * * * * * * * * * * * * * * * * * * * * * * * * * * //

10
(
    inlet
    {
        type            patch;
        nFaces          0;
        startFace       625;
    }
    outlet
    {
        type            patch;
        nFaces          14;
        startFace       625;
    }
    airfoil
    {
        type            wall;
        inGroups        List<word> 1(wall);
        nFaces          0;
        startFace       639;
    }
    top
    {
        type            symmetryPlane;
        inGroups        List<word> 1(symmetryPlane);
        nFaces          0;
        startFace       639;
    }
    bottom
    {
        type            symmetryPlane;
        inGroups        List<word> 1(symmetryPlane);
        nFaces          0;
        startFace       639;
    }
    defaultFaces
    {
        type            empty;
        inGroups        List<word> 1(empty);
        nFaces          666;
        startFace       639;
    }
    procBoundary11to4
    {
        type            processor;
        inGroups        List<word> 1(processor);
        nFaces          7;
        startFace       1305;
        matchTolerance  0.0001;
        transform       unknown;
        myProcNo        11;
        neighbProcNo    4;
    }
    procBoundary11to5
    {
        type            processor;
        inGroups        List<word> 1(processor);
        nFaces          25;
        startFace       1312;
        matchTolerance  0.0001;
        transform       unknown;
        myProcNo        11;
        neighbProcNo    5;
    }
    procBoundary11to10
    {
        type            processor;
        inGroups        List<word> 1(processor);
        nFaces          9;
        startFace       1337;
        matchTolerance  0.0001;
        transform       unknown;
        myProcNo        11;
        neighbProcNo    10;
    }
    procBoundary11to17
    {
        type            processor;
        inGroups        List<word> 1(processor);
        nFaces          27;
        startFace       1346;
        matchTolerance  0.0001;
        transform       unknown;
        myProcNo        11;
        neighbProcNo    17;
    }
)

// ************************************************************************* //
