/*--------------------------------*- C++ -*----------------------------------*\
  =========                 |
  \\      /  F ield         | OpenFOAM: The Open Source CFD Toolbox
   \\    /   O peration     | Website:  https://openfoam.org
    \\  /    A nd           | Version:  7
     \\/     M anipulation  |
\*---------------------------------------------------------------------------*/
FoamFile
{
    version     2.0;
    format      ascii;
    class       polyBoundaryMesh;
    location    "constant/polyMesh";
    object      boundary;
}
// * * * * * * * * * * * * * * * * * * * * * * * * * * * * * * * * * * * * * //

10
(
    inlet
    {
        type            patch;
        nFaces          6;
        startFace       603;
    }
    outlet
    {
        type            patch;
        nFaces          0;
        startFace       609;
    }
    airfoil
    {
        type            wall;
        inGroups        List<word> 1(wall);
        nFaces          0;
        startFace       609;
    }
    top
    {
        type            symmetryPlane;
        inGroups        List<word> 1(symmetryPlane);
        nFaces          0;
        startFace       609;
    }
    bottom
    {
        type            symmetryPlane;
        inGroups        List<word> 1(symmetryPlane);
        nFaces          0;
        startFace       609;
    }
    defaultFaces
    {
        type            empty;
        inGroups        List<word> 1(empty);
        nFaces          666;
        startFace       609;
    }
    procBoundary12to6
    {
        type            processor;
        inGroups        List<word> 1(processor);
        nFaces          41;
        startFace       1275;
        matchTolerance  0.0001;
        transform       unknown;
        myProcNo        12;
        neighbProcNo    6;
    }
    procBoundary12to13
    {
        type            processor;
        inGroups        List<word> 1(processor);
        nFaces          28;
        startFace       1316;
        matchTolerance  0.0001;
        transform       unknown;
        myProcNo        12;
        neighbProcNo    13;
    }
    procBoundary12to18
    {
        type            processor;
        inGroups        List<word> 1(processor);
        nFaces          48;
        startFace       1344;
        matchTolerance  0.0001;
        transform       unknown;
        myProcNo        12;
        neighbProcNo    18;
    }
    procBoundary12to19
    {
        type            processor;
        inGroups        List<word> 1(processor);
        nFaces          3;
        startFace       1392;
        matchTolerance  0.0001;
        transform       unknown;
        myProcNo        12;
        neighbProcNo    19;
    }
)

// ************************************************************************* //
