/*--------------------------------*- C++ -*----------------------------------*\
  =========                 |
  \\      /  F ield         | OpenFOAM: The Open Source CFD Toolbox
   \\    /   O peration     | Website:  https://openfoam.org
    \\  /    A nd           | Version:  7
     \\/     M anipulation  |
\*---------------------------------------------------------------------------*/
FoamFile
{
    version     2.0;
    format      ascii;
    class       polyBoundaryMesh;
    location    "constant/polyMesh";
    object      boundary;
}
// * * * * * * * * * * * * * * * * * * * * * * * * * * * * * * * * * * * * * //

11
(
    inlet
    {
        type            patch;
        nFaces          0;
        startFace       616;
    }
    outlet
    {
        type            patch;
        nFaces          0;
        startFace       616;
    }
    airfoil
    {
        type            wall;
        inGroups        List<word> 1(wall);
        nFaces          26;
        startFace       616;
    }
    top
    {
        type            symmetryPlane;
        inGroups        List<word> 1(symmetryPlane);
        nFaces          0;
        startFace       642;
    }
    bottom
    {
        type            symmetryPlane;
        inGroups        List<word> 1(symmetryPlane);
        nFaces          0;
        startFace       642;
    }
    defaultFaces
    {
        type            empty;
        inGroups        List<word> 1(empty);
        nFaces          666;
        startFace       642;
    }
    procBoundary21to15
    {
        type            processor;
        inGroups        List<word> 1(processor);
        nFaces          4;
        startFace       1308;
        matchTolerance  0.0001;
        transform       unknown;
        myProcNo        21;
        neighbProcNo    15;
    }
    procBoundary21to20
    {
        type            processor;
        inGroups        List<word> 1(processor);
        nFaces          8;
        startFace       1312;
        matchTolerance  0.0001;
        transform       unknown;
        myProcNo        21;
        neighbProcNo    20;
    }
    procBoundary21to22
    {
        type            processor;
        inGroups        List<word> 1(processor);
        nFaces          29;
        startFace       1320;
        matchTolerance  0.0001;
        transform       unknown;
        myProcNo        21;
        neighbProcNo    22;
    }
    procBoundary21to27
    {
        type            processor;
        inGroups        List<word> 1(processor);
        nFaces          30;
        startFace       1349;
        matchTolerance  0.0001;
        transform       unknown;
        myProcNo        21;
        neighbProcNo    27;
    }
    procBoundary21to28
    {
        type            processor;
        inGroups        List<word> 1(processor);
        nFaces          3;
        startFace       1379;
        matchTolerance  0.0001;
        transform       unknown;
        myProcNo        21;
        neighbProcNo    28;
    }
)

// ************************************************************************* //
