/*--------------------------------*- C++ -*----------------------------------*\
  =========                 |
  \\      /  F ield         | OpenFOAM: The Open Source CFD Toolbox
   \\    /   O peration     | Website:  https://openfoam.org
    \\  /    A nd           | Version:  7
     \\/     M anipulation  |
\*---------------------------------------------------------------------------*/
FoamFile
{
    version     2.0;
    format      ascii;
    class       polyBoundaryMesh;
    location    "constant/polyMesh";
    object      boundary;
}
// * * * * * * * * * * * * * * * * * * * * * * * * * * * * * * * * * * * * * //

12
(
    inlet
    {
        type            patch;
        nFaces          0;
        startFace       606;
    }
    outlet
    {
        type            patch;
        nFaces          0;
        startFace       606;
    }
    airfoil
    {
        type            wall;
        inGroups        List<word> 1(wall);
        nFaces          0;
        startFace       606;
    }
    top
    {
        type            symmetryPlane;
        inGroups        List<word> 1(symmetryPlane);
        nFaces          0;
        startFace       606;
    }
    bottom
    {
        type            symmetryPlane;
        inGroups        List<word> 1(symmetryPlane);
        nFaces          0;
        startFace       606;
    }
    defaultFaces
    {
        type            empty;
        inGroups        List<word> 1(empty);
        nFaces          666;
        startFace       606;
    }
    procBoundary22to15
    {
        type            processor;
        inGroups        List<word> 1(processor);
        nFaces          2;
        startFace       1272;
        matchTolerance  0.0001;
        transform       unknown;
        myProcNo        22;
        neighbProcNo    15;
    }
    procBoundary22to16
    {
        type            processor;
        inGroups        List<word> 1(processor);
        nFaces          44;
        startFace       1274;
        matchTolerance  0.0001;
        transform       unknown;
        myProcNo        22;
        neighbProcNo    16;
    }
    procBoundary22to21
    {
        type            processor;
        inGroups        List<word> 1(processor);
        nFaces          21;
        startFace       1318;
        matchTolerance  0.0001;
        transform       unknown;
        myProcNo        22;
        neighbProcNo    21;
    }
    procBoundary22to23
    {
        type            processor;
        inGroups        List<word> 1(processor);
        nFaces          8;
        startFace       1339;
        matchTolerance  0.0001;
        transform       unknown;
        myProcNo        22;
        neighbProcNo    23;
    }
    procBoundary22to27
    {
        type            processor;
        inGroups        List<word> 1(processor);
        nFaces          7;
        startFace       1347;
        matchTolerance  0.0001;
        transform       unknown;
        myProcNo        22;
        neighbProcNo    27;
    }
    procBoundary22to28
    {
        type            processor;
        inGroups        List<word> 1(processor);
        nFaces          38;
        startFace       1354;
        matchTolerance  0.0001;
        transform       unknown;
        myProcNo        22;
        neighbProcNo    28;
    }
)

// ************************************************************************* //
