/*--------------------------------*- C++ -*----------------------------------*\
  =========                 |
  \\      /  F ield         | OpenFOAM: The Open Source CFD Toolbox
   \\    /   O peration     | Website:  https://openfoam.org
    \\  /    A nd           | Version:  7
     \\/     M anipulation  |
\*---------------------------------------------------------------------------*/
FoamFile
{
    version     2.0;
    format      ascii;
    class       polyBoundaryMesh;
    location    "constant/polyMesh";
    object      boundary;
}
// * * * * * * * * * * * * * * * * * * * * * * * * * * * * * * * * * * * * * //

11
(
    inlet
    {
        type            patch;
        nFaces          0;
        startFace       616;
    }
    outlet
    {
        type            patch;
        nFaces          0;
        startFace       616;
    }
    airfoil
    {
        type            wall;
        inGroups        List<word> 1(wall);
        nFaces          0;
        startFace       616;
    }
    top
    {
        type            symmetryPlane;
        inGroups        List<word> 1(symmetryPlane);
        nFaces          0;
        startFace       616;
    }
    bottom
    {
        type            symmetryPlane;
        inGroups        List<word> 1(symmetryPlane);
        nFaces          12;
        startFace       616;
    }
    defaultFaces
    {
        type            empty;
        inGroups        List<word> 1(empty);
        nFaces          666;
        startFace       628;
    }
    procBoundary3to2
    {
        type            processor;
        inGroups        List<word> 1(processor);
        nFaces          26;
        startFace       1294;
        matchTolerance  0.0001;
        transform       unknown;
        myProcNo        3;
        neighbProcNo    2;
    }
    procBoundary3to4
    {
        type            processor;
        inGroups        List<word> 1(processor);
        nFaces          25;
        startFace       1320;
        matchTolerance  0.0001;
        transform       unknown;
        myProcNo        3;
        neighbProcNo    4;
    }
    procBoundary3to8
    {
        type            processor;
        inGroups        List<word> 1(processor);
        nFaces          11;
        startFace       1345;
        matchTolerance  0.0001;
        transform       unknown;
        myProcNo        3;
        neighbProcNo    8;
    }
    procBoundary3to9
    {
        type            processor;
        inGroups        List<word> 1(processor);
        nFaces          21;
        startFace       1356;
        matchTolerance  0.0001;
        transform       unknown;
        myProcNo        3;
        neighbProcNo    9;
    }
    procBoundary3to10
    {
        type            processor;
        inGroups        List<word> 1(processor);
        nFaces          5;
        startFace       1377;
        matchTolerance  0.0001;
        transform       unknown;
        myProcNo        3;
        neighbProcNo    10;
    }
)

// ************************************************************************* //
