/*--------------------------------*- C++ -*----------------------------------*\
  =========                 |
  \\      /  F ield         | OpenFOAM: The Open Source CFD Toolbox
   \\    /   O peration     | Website:  https://openfoam.org
    \\  /    A nd           | Version:  7
     \\/     M anipulation  |
\*---------------------------------------------------------------------------*/
FoamFile
{
    version     2.0;
    format      ascii;
    class       polyBoundaryMesh;
    location    "constant/polyMesh";
    object      boundary;
}
// * * * * * * * * * * * * * * * * * * * * * * * * * * * * * * * * * * * * * //

11
(
    inlet
    {
        type            patch;
        nFaces          0;
        startFace       624;
    }
    outlet
    {
        type            patch;
        nFaces          0;
        startFace       624;
    }
    airfoil
    {
        type            wall;
        inGroups        List<word> 1(wall);
        nFaces          0;
        startFace       624;
    }
    top
    {
        type            symmetryPlane;
        inGroups        List<word> 1(symmetryPlane);
        nFaces          13;
        startFace       624;
    }
    bottom
    {
        type            symmetryPlane;
        inGroups        List<word> 1(symmetryPlane);
        nFaces          0;
        startFace       637;
    }
    defaultFaces
    {
        type            empty;
        inGroups        List<word> 1(empty);
        nFaces          670;
        startFace       637;
    }
    procBoundary33to26
    {
        type            processor;
        inGroups        List<word> 1(processor);
        nFaces          3;
        startFace       1307;
        matchTolerance  0.0001;
        transform       unknown;
        myProcNo        33;
        neighbProcNo    26;
    }
    procBoundary33to27
    {
        type            processor;
        inGroups        List<word> 1(processor);
        nFaces          19;
        startFace       1310;
        matchTolerance  0.0001;
        transform       unknown;
        myProcNo        33;
        neighbProcNo    27;
    }
    procBoundary33to28
    {
        type            processor;
        inGroups        List<word> 1(processor);
        nFaces          12;
        startFace       1329;
        matchTolerance  0.0001;
        transform       unknown;
        myProcNo        33;
        neighbProcNo    28;
    }
    procBoundary33to32
    {
        type            processor;
        inGroups        List<word> 1(processor);
        nFaces          26;
        startFace       1341;
        matchTolerance  0.0001;
        transform       unknown;
        myProcNo        33;
        neighbProcNo    32;
    }
    procBoundary33to34
    {
        type            processor;
        inGroups        List<word> 1(processor);
        nFaces          19;
        startFace       1367;
        matchTolerance  0.0001;
        transform       unknown;
        myProcNo        33;
        neighbProcNo    34;
    }
)

// ************************************************************************* //
