/*--------------------------------*- C++ -*----------------------------------*\
  =========                 |
  \\      /  F ield         | OpenFOAM: The Open Source CFD Toolbox
   \\    /   O peration     | Website:  https://openfoam.org
    \\  /    A nd           | Version:  7
     \\/     M anipulation  |
\*---------------------------------------------------------------------------*/
FoamFile
{
    version     2.0;
    format      ascii;
    class       polyBoundaryMesh;
    location    "constant/polyMesh";
    object      boundary;
}
// * * * * * * * * * * * * * * * * * * * * * * * * * * * * * * * * * * * * * //

9
(
    inlet
    {
        type            patch;
        nFaces          4;
        startFace       604;
    }
    outlet
    {
        type            patch;
        nFaces          0;
        startFace       608;
    }
    airfoil
    {
        type            wall;
        inGroups        List<word> 1(wall);
        nFaces          5;
        startFace       608;
    }
    top
    {
        type            symmetryPlane;
        inGroups        List<word> 1(symmetryPlane);
        nFaces          0;
        startFace       613;
    }
    bottom
    {
        type            symmetryPlane;
        inGroups        List<word> 1(symmetryPlane);
        nFaces          0;
        startFace       613;
    }
    defaultFaces
    {
        type            empty;
        inGroups        List<word> 1(empty);
        nFaces          666;
        startFace       613;
    }
    procBoundary18to12
    {
        type            processor;
        inGroups        List<word> 1(processor);
        nFaces          51;
        startFace       1279;
        matchTolerance  0.0001;
        transform       unknown;
        myProcNo        18;
        neighbProcNo    12;
    }
    procBoundary18to19
    {
        type            processor;
        inGroups        List<word> 1(processor);
        nFaces          21;
        startFace       1330;
        matchTolerance  0.0001;
        transform       unknown;
        myProcNo        18;
        neighbProcNo    19;
    }
    procBoundary18to24
    {
        type            processor;
        inGroups        List<word> 1(processor);
        nFaces          43;
        startFace       1351;
        matchTolerance  0.0001;
        transform       unknown;
        myProcNo        18;
        neighbProcNo    24;
    }
)

// ************************************************************************* //
