/*--------------------------------*- C++ -*----------------------------------*\
  =========                 |
  \\      /  F ield         | OpenFOAM: The Open Source CFD Toolbox
   \\    /   O peration     | Website:  https://openfoam.org
    \\  /    A nd           | Version:  7
     \\/     M anipulation  |
\*---------------------------------------------------------------------------*/
FoamFile
{
    version     2.0;
    format      ascii;
    class       polyBoundaryMesh;
    location    "constant/polyMesh";
    object      boundary;
}
// * * * * * * * * * * * * * * * * * * * * * * * * * * * * * * * * * * * * * //

12
(
    inlet
    {
        type            patch;
        nFaces          0;
        startFace       619;
    }
    outlet
    {
        type            patch;
        nFaces          0;
        startFace       619;
    }
    airfoil
    {
        type            wall;
        inGroups        List<word> 1(wall);
        nFaces          24;
        startFace       619;
    }
    top
    {
        type            symmetryPlane;
        inGroups        List<word> 1(symmetryPlane);
        nFaces          0;
        startFace       643;
    }
    bottom
    {
        type            symmetryPlane;
        inGroups        List<word> 1(symmetryPlane);
        nFaces          0;
        startFace       643;
    }
    defaultFaces
    {
        type            empty;
        inGroups        List<word> 1(empty);
        nFaces          666;
        startFace       643;
    }
    procBoundary14to7
    {
        type            processor;
        inGroups        List<word> 1(processor);
        nFaces          12;
        startFace       1309;
        matchTolerance  0.0001;
        transform       unknown;
        myProcNo        14;
        neighbProcNo    7;
    }
    procBoundary14to8
    {
        type            processor;
        inGroups        List<word> 1(processor);
        nFaces          28;
        startFace       1321;
        matchTolerance  0.0001;
        transform       unknown;
        myProcNo        14;
        neighbProcNo    8;
    }
    procBoundary14to9
    {
        type            processor;
        inGroups        List<word> 1(processor);
        nFaces          6;
        startFace       1349;
        matchTolerance  0.0001;
        transform       unknown;
        myProcNo        14;
        neighbProcNo    9;
    }
    procBoundary14to13
    {
        type            processor;
        inGroups        List<word> 1(processor);
        nFaces          5;
        startFace       1355;
        matchTolerance  0.0001;
        transform       unknown;
        myProcNo        14;
        neighbProcNo    13;
    }
    procBoundary14to15
    {
        type            processor;
        inGroups        List<word> 1(processor);
        nFaces          12;
        startFace       1360;
        matchTolerance  0.0001;
        transform       unknown;
        myProcNo        14;
        neighbProcNo    15;
    }
    procBoundary14to20
    {
        type            processor;
        inGroups        List<word> 1(processor);
        nFaces          7;
        startFace       1372;
        matchTolerance  0.0001;
        transform       unknown;
        myProcNo        14;
        neighbProcNo    20;
    }
)

// ************************************************************************* //
