/*--------------------------------*- C++ -*----------------------------------*\
  =========                 |
  \\      /  F ield         | OpenFOAM: The Open Source CFD Toolbox
   \\    /   O peration     | Website:  https://openfoam.org
    \\  /    A nd           | Version:  7
     \\/     M anipulation  |
\*---------------------------------------------------------------------------*/
FoamFile
{
    version     2.0;
    format      ascii;
    class       polyBoundaryMesh;
    location    "constant/polyMesh";
    object      boundary;
}
// * * * * * * * * * * * * * * * * * * * * * * * * * * * * * * * * * * * * * //

10
(
    inlet
    {
        type            patch;
        nFaces          0;
        startFace       630;
    }
    outlet
    {
        type            patch;
        nFaces          0;
        startFace       630;
    }
    airfoil
    {
        type            wall;
        inGroups        List<word> 1(wall);
        nFaces          0;
        startFace       630;
    }
    top
    {
        type            symmetryPlane;
        inGroups        List<word> 1(symmetryPlane);
        nFaces          18;
        startFace       630;
    }
    bottom
    {
        type            symmetryPlane;
        inGroups        List<word> 1(symmetryPlane);
        nFaces          0;
        startFace       648;
    }
    defaultFaces
    {
        type            empty;
        inGroups        List<word> 1(empty);
        nFaces          670;
        startFace       648;
    }
    procBoundary34to28
    {
        type            processor;
        inGroups        List<word> 1(processor);
        nFaces          21;
        startFace       1318;
        matchTolerance  0.0001;
        transform       unknown;
        myProcNo        34;
        neighbProcNo    28;
    }
    procBoundary34to29
    {
        type            processor;
        inGroups        List<word> 1(processor);
        nFaces          6;
        startFace       1339;
        matchTolerance  0.0001;
        transform       unknown;
        myProcNo        34;
        neighbProcNo    29;
    }
    procBoundary34to33
    {
        type            processor;
        inGroups        List<word> 1(processor);
        nFaces          21;
        startFace       1345;
        matchTolerance  0.0001;
        transform       unknown;
        myProcNo        34;
        neighbProcNo    33;
    }
    procBoundary34to35
    {
        type            processor;
        inGroups        List<word> 1(processor);
        nFaces          14;
        startFace       1366;
        matchTolerance  0.0001;
        transform       unknown;
        myProcNo        34;
        neighbProcNo    35;
    }
)

// ************************************************************************* //
