/*--------------------------------*- C++ -*----------------------------------*\
  =========                 |
  \\      /  F ield         | OpenFOAM: The Open Source CFD Toolbox
   \\    /   O peration     | Website:  https://openfoam.org
    \\  /    A nd           | Version:  7
     \\/     M anipulation  |
\*---------------------------------------------------------------------------*/
FoamFile
{
    version     2.0;
    format      ascii;
    class       polyBoundaryMesh;
    location    "constant/polyMesh";
    object      boundary;
}
// * * * * * * * * * * * * * * * * * * * * * * * * * * * * * * * * * * * * * //

12
(
    inlet
    {
        type            patch;
        nFaces          0;
        startFace       617;
    }
    outlet
    {
        type            patch;
        nFaces          0;
        startFace       617;
    }
    airfoil
    {
        type            wall;
        inGroups        List<word> 1(wall);
        nFaces          0;
        startFace       617;
    }
    top
    {
        type            symmetryPlane;
        inGroups        List<word> 1(symmetryPlane);
        nFaces          0;
        startFace       617;
    }
    bottom
    {
        type            symmetryPlane;
        inGroups        List<word> 1(symmetryPlane);
        nFaces          0;
        startFace       617;
    }
    defaultFaces
    {
        type            empty;
        inGroups        List<word> 1(empty);
        nFaces          666;
        startFace       617;
    }
    procBoundary26to20
    {
        type            processor;
        inGroups        List<word> 1(processor);
        nFaces          29;
        startFace       1283;
        matchTolerance  0.0001;
        transform       unknown;
        myProcNo        26;
        neighbProcNo    20;
    }
    procBoundary26to25
    {
        type            processor;
        inGroups        List<word> 1(processor);
        nFaces          14;
        startFace       1312;
        matchTolerance  0.0001;
        transform       unknown;
        myProcNo        26;
        neighbProcNo    25;
    }
    procBoundary26to27
    {
        type            processor;
        inGroups        List<word> 1(processor);
        nFaces          10;
        startFace       1326;
        matchTolerance  0.0001;
        transform       unknown;
        myProcNo        26;
        neighbProcNo    27;
    }
    procBoundary26to31
    {
        type            processor;
        inGroups        List<word> 1(processor);
        nFaces          8;
        startFace       1336;
        matchTolerance  0.0001;
        transform       unknown;
        myProcNo        26;
        neighbProcNo    31;
    }
    procBoundary26to32
    {
        type            processor;
        inGroups        List<word> 1(processor);
        nFaces          24;
        startFace       1344;
        matchTolerance  0.0001;
        transform       unknown;
        myProcNo        26;
        neighbProcNo    32;
    }
    procBoundary26to33
    {
        type            processor;
        inGroups        List<word> 1(processor);
        nFaces          13;
        startFace       1368;
        matchTolerance  0.0001;
        transform       unknown;
        myProcNo        26;
        neighbProcNo    33;
    }
)

// ************************************************************************* //
