/*--------------------------------*- C++ -*----------------------------------*\
  =========                 |
  \\      /  F ield         | OpenFOAM: The Open Source CFD Toolbox
   \\    /   O peration     | Website:  https://openfoam.org
    \\  /    A nd           | Version:  7
     \\/     M anipulation  |
\*---------------------------------------------------------------------------*/
FoamFile
{
    version     2.0;
    format      ascii;
    class       polyBoundaryMesh;
    location    "constant/polyMesh";
    object      boundary;
}
// * * * * * * * * * * * * * * * * * * * * * * * * * * * * * * * * * * * * * //

10
(
    inlet
    {
        type            patch;
        nFaces          0;
        startFace       624;
    }
    outlet
    {
        type            patch;
        nFaces          16;
        startFace       624;
    }
    airfoil
    {
        type            wall;
        inGroups        List<word> 1(wall);
        nFaces          0;
        startFace       640;
    }
    top
    {
        type            symmetryPlane;
        inGroups        List<word> 1(symmetryPlane);
        nFaces          0;
        startFace       640;
    }
    bottom
    {
        type            symmetryPlane;
        inGroups        List<word> 1(symmetryPlane);
        nFaces          0;
        startFace       640;
    }
    defaultFaces
    {
        type            empty;
        inGroups        List<word> 1(empty);
        nFaces          666;
        startFace       640;
    }
    procBoundary29to23
    {
        type            processor;
        inGroups        List<word> 1(processor);
        nFaces          30;
        startFace       1306;
        matchTolerance  0.0001;
        transform       unknown;
        myProcNo        29;
        neighbProcNo    23;
    }
    procBoundary29to28
    {
        type            processor;
        inGroups        List<word> 1(processor);
        nFaces          3;
        startFace       1336;
        matchTolerance  0.0001;
        transform       unknown;
        myProcNo        29;
        neighbProcNo    28;
    }
    procBoundary29to34
    {
        type            processor;
        inGroups        List<word> 1(processor);
        nFaces          9;
        startFace       1339;
        matchTolerance  0.0001;
        transform       unknown;
        myProcNo        29;
        neighbProcNo    34;
    }
    procBoundary29to35
    {
        type            processor;
        inGroups        List<word> 1(processor);
        nFaces          26;
        startFace       1348;
        matchTolerance  0.0001;
        transform       unknown;
        myProcNo        29;
        neighbProcNo    35;
    }
)

// ************************************************************************* //
