/*--------------------------------*- C++ -*----------------------------------*\
  =========                 |
  \\      /  F ield         | OpenFOAM: The Open Source CFD Toolbox
   \\    /   O peration     | Website:  https://openfoam.org
    \\  /    A nd           | Version:  7
     \\/     M anipulation  |
\*---------------------------------------------------------------------------*/
FoamFile
{
    version     2.0;
    format      ascii;
    class       polyBoundaryMesh;
    location    "constant/polyMesh";
    object      boundary;
}
// * * * * * * * * * * * * * * * * * * * * * * * * * * * * * * * * * * * * * //

11
(
    inlet
    {
        type            patch;
        nFaces          11;
        startFace       615;
    }
    outlet
    {
        type            patch;
        nFaces          0;
        startFace       626;
    }
    airfoil
    {
        type            wall;
        inGroups        List<word> 1(wall);
        nFaces          0;
        startFace       626;
    }
    top
    {
        type            symmetryPlane;
        inGroups        List<word> 1(symmetryPlane);
        nFaces          0;
        startFace       626;
    }
    bottom
    {
        type            symmetryPlane;
        inGroups        List<word> 1(symmetryPlane);
        nFaces          0;
        startFace       626;
    }
    defaultFaces
    {
        type            empty;
        inGroups        List<word> 1(empty);
        nFaces          666;
        startFace       626;
    }
    procBoundary24to18
    {
        type            processor;
        inGroups        List<word> 1(processor);
        nFaces          43;
        startFace       1292;
        matchTolerance  0.0001;
        transform       unknown;
        myProcNo        24;
        neighbProcNo    18;
    }
    procBoundary24to19
    {
        type            processor;
        inGroups        List<word> 1(processor);
        nFaces          1;
        startFace       1335;
        matchTolerance  0.0001;
        transform       unknown;
        myProcNo        24;
        neighbProcNo    19;
    }
    procBoundary24to25
    {
        type            processor;
        inGroups        List<word> 1(processor);
        nFaces          22;
        startFace       1336;
        matchTolerance  0.0001;
        transform       unknown;
        myProcNo        24;
        neighbProcNo    25;
    }
    procBoundary24to30
    {
        type            processor;
        inGroups        List<word> 1(processor);
        nFaces          24;
        startFace       1358;
        matchTolerance  0.0001;
        transform       unknown;
        myProcNo        24;
        neighbProcNo    30;
    }
    procBoundary24to31
    {
        type            processor;
        inGroups        List<word> 1(processor);
        nFaces          1;
        startFace       1382;
        matchTolerance  0.0001;
        transform       unknown;
        myProcNo        24;
        neighbProcNo    31;
    }
)

// ************************************************************************* //
