/*--------------------------------*- C++ -*----------------------------------*\
  =========                 |
  \\      /  F ield         | OpenFOAM: The Open Source CFD Toolbox
   \\    /   O peration     | Website:  https://openfoam.org
    \\  /    A nd           | Version:  7
     \\/     M anipulation  |
\*---------------------------------------------------------------------------*/
FoamFile
{
    version     2.0;
    format      ascii;
    class       polyBoundaryMesh;
    location    "constant/polyMesh";
    object      boundary;
}
// * * * * * * * * * * * * * * * * * * * * * * * * * * * * * * * * * * * * * //

9
(
    inlet
    {
        type            patch;
        nFaces          22;
        startFace       619;
    }
    outlet
    {
        type            patch;
        nFaces          0;
        startFace       641;
    }
    airfoil
    {
        type            wall;
        inGroups        List<word> 1(wall);
        nFaces          0;
        startFace       641;
    }
    top
    {
        type            symmetryPlane;
        inGroups        List<word> 1(symmetryPlane);
        nFaces          12;
        startFace       641;
    }
    bottom
    {
        type            symmetryPlane;
        inGroups        List<word> 1(symmetryPlane);
        nFaces          0;
        startFace       653;
    }
    defaultFaces
    {
        type            empty;
        inGroups        List<word> 1(empty);
        nFaces          670;
        startFace       653;
    }
    procBoundary30to24
    {
        type            processor;
        inGroups        List<word> 1(processor);
        nFaces          34;
        startFace       1323;
        matchTolerance  0.0001;
        transform       unknown;
        myProcNo        30;
        neighbProcNo    24;
    }
    procBoundary30to25
    {
        type            processor;
        inGroups        List<word> 1(processor);
        nFaces          7;
        startFace       1357;
        matchTolerance  0.0001;
        transform       unknown;
        myProcNo        30;
        neighbProcNo    25;
    }
    procBoundary30to31
    {
        type            processor;
        inGroups        List<word> 1(processor);
        nFaces          27;
        startFace       1364;
        matchTolerance  0.0001;
        transform       unknown;
        myProcNo        30;
        neighbProcNo    31;
    }
)

// ************************************************************************* //
