/*--------------------------------*- C++ -*----------------------------------*\
  =========                 |
  \\      /  F ield         | OpenFOAM: The Open Source CFD Toolbox
   \\    /   O peration     | Website:  https://openfoam.org
    \\  /    A nd           | Version:  7
     \\/     M anipulation  |
\*---------------------------------------------------------------------------*/
FoamFile
{
    version     2.0;
    format      ascii;
    class       polyBoundaryMesh;
    location    "constant/polyMesh";
    object      boundary;
}
// * * * * * * * * * * * * * * * * * * * * * * * * * * * * * * * * * * * * * //

8
(
    inlet
    {
        type            patch;
        nFaces          20;
        startFace       618;
    }
    outlet
    {
        type            patch;
        nFaces          0;
        startFace       638;
    }
    airfoil
    {
        type            wall;
        inGroups        List<word> 1(wall);
        nFaces          0;
        startFace       638;
    }
    top
    {
        type            symmetryPlane;
        inGroups        List<word> 1(symmetryPlane);
        nFaces          13;
        startFace       638;
    }
    bottom
    {
        type            symmetryPlane;
        inGroups        List<word> 1(symmetryPlane);
        nFaces          0;
        startFace       651;
    }
    defaultFaces
    {
        type            empty;
        inGroups        List<word> 1(empty);
        nFaces          670;
        startFace       651;
    }
    procBoundary30to24
    {
        type            processor;
        inGroups        List<word> 1(processor);
        nFaces          51;
        startFace       1321;
        matchTolerance  0.0001;
        transform       unknown;
        myProcNo        30;
        neighbProcNo    24;
    }
    procBoundary30to31
    {
        type            processor;
        inGroups        List<word> 1(processor);
        nFaces          20;
        startFace       1372;
        matchTolerance  0.0001;
        transform       unknown;
        myProcNo        30;
        neighbProcNo    31;
    }
)

// ************************************************************************* //
